12
name
C	0.0000000	0.6579520	0.0000000
C	0.0000000	-0.6579520	0.0000000
C	-1.2255020	1.5234790	0.0000000
C	1.2255020	-1.5234790	0.0000000
H	0.9450240	1.1775970	0.0000000
H	-0.9450240	-1.1775970	0.0000000
H	-2.1299800	0.9284400	0.0000000
H	2.1299800	-0.9284400	0.0000000
H	-1.2447390	2.1687200	0.8726390
H	-1.2447390	2.1687200	-0.8726390
H	1.2447390	-2.1687200	0.8726390
H	1.2447390	-2.1687200	-0.8726390